Brilacidin_newAntibiotic_25023695
                    3D
 Structure written by MMmdl.
120124  0  0  1  0            999 V2000
   -4.3460    1.1896   -2.3672 F   0  0  0  0  0  0
   -6.0529    0.0237   -1.7493 F   0  0  0  0  0  0
   -4.9529   -0.5290   -3.5318 F   0  0  0  0  0  0
    5.8704    6.9780    3.1016 F   0  0  0  0  0  0
    7.8594    7.6198    2.5646 F   0  0  0  0  0  0
    7.5006    6.7057    4.4956 F   0  0  0  0  0  0
   -1.5257   -3.5814    0.7518 O   0  0  0  0  0  0
    8.4458    1.5207    1.0906 O   0  0  0  0  0  0
   -6.3479   -3.9799    0.4280 O   0  0  0  0  0  0
   11.7970    5.0379    2.2816 O   0  0  0  0  0  0
   -0.4558    1.0733   -0.0635 O   0  0  0  0  0  0
    3.9504    3.4596    1.0653 O   0  0  0  0  0  0
   -1.1537   -4.5192    4.1483 N   0  3  0  0  0  0
    8.5393   -1.8811    2.0596 N   0  3  0  0  0  0
   -4.0967   -4.3202    0.2043 N   0  0  0  0  0  0
   10.4964    3.2346    1.7155 N   0  0  0  0  0  0
   -0.4451   -1.2071   -0.1650 N   0  0  0  0  0  0
    5.8142    2.1818    1.4075 N   0  0  0  0  0  0
    2.2657   -1.2302    0.3848 N   0  0  0  0  0  0
    4.3383   -0.1085    0.9156 N   0  0  0  0  0  0
   -9.2101   -5.8406    4.4715 N   0  0  0  0  0  0
   16.4113    2.6573    4.4895 N   0  0  0  0  0  0
  -10.2473   -7.7990    3.7296 N   0  0  0  0  0  0
  -11.4811   -6.0841    4.5871 N   0  3  0  0  0  0
   17.4355    4.4121    3.3312 N   0  0  0  0  0  0
   18.4939    2.4097    3.5789 N   0  3  0  0  0  0
   -1.2949   -3.2108    2.1130 C   0  0  2  0  0  0
    8.8127    0.5289    2.0518 C   0  0  2  0  0  0
    0.1806   -3.4519    2.4677 C   0  0  0  0  0  0
   10.1318   -0.1411    1.6330 C   0  0  0  0  0  0
   -2.1194   -4.1387    3.0211 C   0  0  0  0  0  0
    7.7413   -0.5738    2.0306 C   0  0  0  0  0  0
    0.1987   -4.6301    3.4411 C   0  0  0  0  0  0
    9.7754   -1.5671    1.2143 C   0  0  0  0  0  0
   -2.3149   -2.7159    0.0217 C   0  0  0  0  0  0
    8.1410    2.7665    1.6017 C   0  0  0  0  0  0
   -3.6432   -3.0703   -0.2626 C   0  0  0  0  0  0
    9.1694    3.6696    1.9304 C   0  0  0  0  0  0
   -1.7962   -1.4942   -0.4430 C   0  0  0  0  0  0
    6.7939    3.1348    1.7600 C   0  0  0  0  0  0
   -4.4450   -2.1968   -1.0130 C   0  0  0  0  0  0
    8.8296    4.9305    2.4476 C   0  0  0  0  0  0
   -2.6155   -0.6362   -1.1924 C   0  0  0  0  0  0
    6.4844    4.3978    2.2882 C   0  0  0  0  0  0
   -3.9404   -0.9796   -1.4784 C   0  0  0  0  0  0
    7.4953    5.2985    2.6331 C   0  0  0  0  0  0
   -5.3564   -4.7063    0.4994 C   0  0  0  0  0  0
   11.6717    3.8748    1.8987 C   0  0  0  0  0  0
   -4.8372   -0.0490   -2.2938 C   0  0  0  0  0  0
    7.1664    6.6773    3.2055 C   0  0  0  0  0  0
   -5.5167   -6.1628    0.9649 C   0  0  0  0  0  0
   12.9271    3.0475    1.5720 C   0  0  0  0  0  0
    0.1466   -0.0005    0.0022 C   0  0  0  0  0  0
    4.5009    2.3585    1.1233 C   0  0  0  0  0  0
   -5.9491   -6.3201    2.4414 C   0  0  0  0  0  0
   14.1541    3.3470    2.4662 C   0  0  0  0  0  0
   -7.4025   -5.9025    2.7479 C   0  0  0  0  0  0
   13.9742    2.9603    3.9516 C   0  0  0  0  0  0
    1.6295   -0.0229    0.3199 C   0  0  0  0  0  0
    3.7006    1.0984    0.8526 C   0  0  0  0  0  0
    2.3292    1.1743    0.5512 C   0  0  0  0  0  0
   -7.8254   -6.2343    4.1880 C   0  0  0  0  0  0
   15.1642    3.3454    4.8485 C   0  0  0  0  0  0
    3.5888   -1.2118    0.6763 C   0  0  0  0  0  0
  -10.2985   -6.5815    4.2585 C   0  0  0  0  0  0
   17.4335    3.1705    3.8028 C   0  0  0  0  0  0
   -1.5595   -2.1691    2.3154 H   0  0  0  0  0  0
    8.9006    0.9351    3.0635 H   0  0  0  0  0  0
    0.7691   -3.7131    1.5865 H   0  0  0  0  0  0
    0.6293   -2.5630    2.9134 H   0  0  0  0  0  0
   10.5913    0.3676    0.7839 H   0  0  0  0  0  0
   10.8531   -0.1389    2.4515 H   0  0  0  0  0  0
   -2.3861   -5.0855    2.5475 H   0  0  0  0  0  0
   -2.9976   -3.6767    3.4735 H   0  0  0  0  0  0
    7.1786   -0.6117    1.0960 H   0  0  0  0  0  0
    7.0640   -0.5743    2.8852 H   0  0  0  0  0  0
    0.9870   -4.5968    4.1939 H   0  0  0  0  0  0
    0.1849   -5.5979    2.9362 H   0  0  0  0  0  0
   10.5394   -2.3160    1.4258 H   0  0  0  0  0  0
    9.4440   -1.6339    0.1763 H   0  0  0  0  0  0
   -1.1215   -3.7840    4.8409 H   0  0  0  0  0  0
    8.8150   -2.0993    3.0068 H   0  0  0  0  0  0
   -5.4600   -2.4614   -1.2686 H   0  0  0  0  0  0
    9.5811    5.6510    2.7248 H   0  0  0  0  0  0
   -2.2213    0.2895   -1.5838 H   0  0  0  0  0  0
    5.4598    4.6876    2.4587 H   0  0  0  0  0  0
   -3.3627   -4.9863    0.3962 H   0  0  0  0  0  0
   10.5597    2.2918    1.3604 H   0  0  0  0  0  0
    0.1350   -2.0183   -0.0067 H   0  0  0  0  0  0
    6.1619    1.2375    1.3279 H   0  0  0  0  0  0
   -6.2228   -6.6701    0.3061 H   0  0  0  0  0  0
   -4.5679   -6.6859    0.8302 H   0  0  0  0  0  0
   12.7043    1.9791    1.6016 H   0  0  0  0  0  0
   13.1883    3.2688    0.5364 H   0  0  0  0  0  0
   -5.8317   -7.3710    2.7102 H   0  0  0  0  0  0
   -5.2610   -5.7755    3.0907 H   0  0  0  0  0  0
   15.0103    2.8058    2.0612 H   0  0  0  0  0  0
   14.4183    4.4032    2.3872 H   0  0  0  0  0  0
   -7.5249   -4.8319    2.5810 H   0  0  0  0  0  0
   -8.0746   -6.4026    2.0487 H   0  0  0  0  0  0
   13.0828    3.4463    4.3501 H   0  0  0  0  0  0
   13.7878    1.8881    4.0305 H   0  0  0  0  0  0
    1.8240    2.1296    0.5030 H   0  0  0  0  0  0
   -7.2065   -5.7034    4.9122 H   0  0  0  0  0  0
   -7.7322   -7.2992    4.4025 H   0  0  0  0  0  0
   14.9640    3.0665    5.8835 H   0  0  0  0  0  0
   15.3373    4.4215    4.8444 H   0  0  0  0  0  0
    4.0922   -2.1659    0.7221 H   0  0  0  0  0  0
  -11.0988   -8.3213    3.5822 H   0  0  0  0  0  0
   -9.3562   -8.1991    3.4732 H   0  0  0  0  0  0
  -11.5453   -5.1607    4.9911 H   0  0  0  0  0  0
  -12.3172   -6.6294    4.4337 H   0  0  0  0  0  0
   18.2412    4.7622    2.8333 H   0  0  0  0  0  0
   16.6354    5.0088    3.4844 H   0  0  0  0  0  0
   18.5192    1.4627    3.9287 H   0  0  0  0  0  0
   19.2789    2.7802    3.0628 H   0  0  0  0  0  0
   -9.3612   -4.8900    4.7775 H   0  0  0  0  0  0
   16.4813    1.6825    4.7439 H   0  0  0  0  0  0
   -1.4187   -5.3741    4.6172 H   0  0  0  0  0  0
    8.0127   -2.6659    1.7023 H   0  0  0  0  0  0
  1 49  1  0  0  0
  2 49  1  0  0  0
  3 49  1  0  0  0
  4 50  1  0  0  0
  5 50  1  0  0  0
  6 50  1  0  0  0
  7 27  1  0  0  0
  7 35  1  0  0  0
  8 28  1  0  0  0
  8 36  1  0  0  0
  9 47  2  0  0  0
 10 48  2  0  0  0
 11 53  2  0  0  0
 12 54  2  0  0  0
 13 31  1  0  0  0
 13 33  1  0  0  0
 13 81  1  0  0  0
 13119  1  0  0  0
 14 32  1  0  0  0
 14 34  1  0  0  0
 14 82  1  0  0  0
 14120  1  0  0  0
 15 37  1  0  0  0
 15 47  1  0  0  0
 15 87  1  0  0  0
 16 38  1  0  0  0
 16 48  1  0  0  0
 16 88  1  0  0  0
 17 39  1  0  0  0
 17 53  1  0  0  0
 17 89  1  0  0  0
 18 40  1  0  0  0
 18 54  1  0  0  0
 18 90  1  0  0  0
 19 59  2  0  0  0
 19 64  1  0  0  0
 20 60  1  0  0  0
 20 64  2  0  0  0
 21 62  1  0  0  0
 21 65  1  0  0  0
 21117  1  0  0  0
 22 63  1  0  0  0
 22 66  1  0  0  0
 22118  1  0  0  0
 23 65  1  0  0  0
 23109  1  0  0  0
 23110  1  0  0  0
 24 65  2  0  0  0
 24111  1  0  0  0
 24112  1  0  0  0
 25 66  1  0  0  0
 25113  1  0  0  0
 25114  1  0  0  0
 26 66  2  0  0  0
 26115  1  0  0  0
 26116  1  0  0  0
 27 29  1  0  0  0
 27 31  1  0  0  0
 27 67  1  0  0  0
 28 30  1  0  0  0
 28 32  1  0  0  0
 28 68  1  0  0  0
 29 33  1  0  0  0
 29 69  1  0  0  0
 29 70  1  0  0  0
 30 34  1  0  0  0
 30 71  1  0  0  0
 30 72  1  0  0  0
 31 73  1  0  0  0
 31 74  1  0  0  0
 32 75  1  0  0  0
 32 76  1  0  0  0
 33 77  1  0  0  0
 33 78  1  0  0  0
 34 79  1  0  0  0
 34 80  1  0  0  0
 35 37  2  0  0  0
 35 39  1  0  0  0
 36 38  2  0  0  0
 36 40  1  0  0  0
 37 41  1  0  0  0
 38 42  1  0  0  0
 39 43  2  0  0  0
 40 44  2  0  0  0
 41 45  2  0  0  0
 41 83  1  0  0  0
 42 46  2  0  0  0
 42 84  1  0  0  0
 43 45  1  0  0  0
 43 85  1  0  0  0
 44 46  1  0  0  0
 44 86  1  0  0  0
 45 49  1  0  0  0
 46 50  1  0  0  0
 47 51  1  0  0  0
 48 52  1  0  0  0
 51 55  1  0  0  0
 51 91  1  0  0  0
 51 92  1  0  0  0
 52 56  1  0  0  0
 52 93  1  0  0  0
 52 94  1  0  0  0
 53 59  1  0  0  0
 54 60  1  0  0  0
 55 57  1  0  0  0
 55 95  1  0  0  0
 55 96  1  0  0  0
 56 58  1  0  0  0
 56 97  1  0  0  0
 56 98  1  0  0  0
 57 62  1  0  0  0
 57 99  1  0  0  0
 57100  1  0  0  0
 58 63  1  0  0  0
 58101  1  0  0  0
 58102  1  0  0  0
 59 61  1  0  0  0
 60 61  2  0  0  0
 61103  1  0  0  0
 62104  1  0  0  0
 62105  1  0  0  0
 63106  1  0  0  0
 63107  1  0  0  0
 64108  1  0  0  0
M  CHG  4  13   1  14   1  24   1  26   1
M  END
> <s_m_entry_id>
35

> <s_m_entry_name>
Brilacidin2D_newAntibiotic_25023695.1

> <PUBCHEM_COMPOUND_CID>
25023695

> <PUBCHEM_COMPOUND_CANONICALIZED>
1

> <PUBCHEM_CACTVS_COMPLEXITY>
1560

> <PUBCHEM_CACTVS_HBOND_ACCEPTOR>
18

> <PUBCHEM_CACTVS_HBOND_DONOR>
10

> <PUBCHEM_CACTVS_ROTATABLE_BOND>
20

> <PUBCHEM_CACTVS_SUBSKEYS>
AAADcfB/+cAAAAAAAAAAAAAAAAAAAWLAAAA8YIAAAAAAAAAB0AAAHwAQAAAADBzhnhY11pbIFACoAyVzdACCiCk3IqAB2KG9bNiObjLE/fuXPSju1BPY6aecwwAOIAAAQAQAEABAAACACAAgAAAAAAAAAA==

> <PUBCHEM_IUPAC_OPENEYE_NAME>
N4,N6-bis[3-(5-guanidinopentanoylamino)-2-[(3R)-pyrrolidin-3-yl]oxy-5-(trifluoromethyl)phenyl]pyrimidine-4,6-dicarboxamide

> <PUBCHEM_IUPAC_CAS_NAME>
N4,N6-bis[3-[[5-(diaminomethylideneamino)-1-oxopentyl]amino]-2-[[(3R)-3-pyrrolidinyl]oxy]-5-(trifluoromethyl)phenyl]pyrimidine-4,6-dicarboxamide

> <PUBCHEM_IUPAC_NAME_MARKUP>
4-<I>N</I>,6-<I>N</I>-bis[3-[5-(diaminomethylideneamino)pentanoylamino]-2-[(3<I>R</I>)-pyrrolidin-3-yl]oxy-5-(trifluoromethyl)phenyl]pyrimidine-4,6-dicarboxamide

> <PUBCHEM_IUPAC_NAME>
4-N,6-N-bis[3-[5-(diaminomethylideneamino)pentanoylamino]-2-[(3R)-pyrrolidin-3-yl]oxy-5-(trifluoromethyl)phenyl]pyrimidine-4,6-dicarboxamide

> <PUBCHEM_IUPAC_SYSTEMATIC_NAME>
N4,N6-bis[3-[5-[bis(azanyl)methylideneamino]pentanoylamino]-2-[(3R)-pyrrolidin-3-yl]oxy-5-(trifluoromethyl)phenyl]pyrimidine-4,6-dicarboxamide

> <PUBCHEM_IUPAC_TRADITIONAL_NAME>
N,N'-bis[3-(5-guanidinopentanoylamino)-2-[(3R)-pyrrolidin-3-yl]oxy-5-(trifluoromethyl)phenyl]pyrimidine-4,6-dicarboxamide

> <PUBCHEM_IUPAC_INCHI>
InChI=1S/C40H50F6N14O6/c41-39(42,43)21-13-25(57-31(61)5-1-3-9-53-37(47)48)33(65-23-7-11-51-18-23)27(15-21)59-35(63)29-17-30(56-20-55-29)36(64)60-28-16-22(40(44,45)46)14-26(34(28)66-24-8-12-52-19-24)58-32(62)6-2-4-10-54-38(49)50/h13-17,20,23-24,51-52H,1-12,18-19H2,(H,57,61)(H,58,62)(H,59,63)(H,60,64)(H4,47,48,53)(H4,49,50,54)/t23-,24-/m1/s1

> <PUBCHEM_IUPAC_INCHIKEY>
QPDYBCZNGUJZDK-DNQXCXABSA-N

> <PUBCHEM_XLOGP3_AA>
0.3

> <PUBCHEM_EXACT_MASS>
936.394194

> <PUBCHEM_MOLECULAR_FORMULA>
C40H50F6N14O6

> <PUBCHEM_MOLECULAR_WEIGHT>
936.9

> <PUBCHEM_OPENEYE_CAN_SMILES>
C1CNCC1OC2=C(C=C(C=C2NC(=O)C3=CC(=NC=N3)C(=O)NC4=CC(=CC(=C4OC5CCNC5)NC(=O)CCCCN=C(N)N)C(F)(F)F)C(F)(F)F)NC(=O)CCCCN=C(N)N

> <PUBCHEM_OPENEYE_ISO_SMILES>
C1CNC[C@@H]1OC2=C(C=C(C=C2NC(=O)C3=CC(=NC=N3)C(=O)NC4=CC(=CC(=C4O[C@@H]5CCNC5)NC(=O)CCCCN=C(N)N)C(F)(F)F)C(F)(F)F)NC(=O)CCCCN=C(N)N

> <PUBCHEM_MONOISOTOPIC_WEIGHT>
936.394194

> <PUBCHEM_TOTAL_CHARGE>
0

> <PUBCHEM_HEAVY_ATOM_COUNT>
66

> <PUBCHEM_ATOM_DEF_STEREO_COUNT>
2

> <PUBCHEM_ATOM_UDEF_STEREO_COUNT>
0

> <PUBCHEM_BOND_DEF_STEREO_COUNT>
0

> <PUBCHEM_BOND_UDEF_STEREO_COUNT>
0

> <PUBCHEM_ISOTOPIC_ATOM_COUNT>
0

> <PUBCHEM_COMPONENT_COUNT>
1

> <PUBCHEM_CACTVS_TAUTO_COUNT>
-1

> <PUBCHEM_COORDINATE_TYPE>
1
5
255

> <PUBCHEM_BONDANNOTATIONS>
19  59  8
19  64  8
20  60  8
20  64  8
35  37  8
35  39  8
36  38  8
36  40  8
37  41  8
38  42  8
39  43  8
40  44  8
41  45  8
42  46  8
43  45  8
44  46  8
59  61  8
60  61  8
27  7  5
28  8  5

> <chiral flag>
1

> <version>
0

> <s_m_Source_Path>
E:\Projects\DeepLearning\Drug\CORONA\Ligand2D

> <s_m_Source_File>
Brilacidin2D_newAntibiotic_25023695.sdf

> <i_m_Source_File_Index>
1

> <PUBCHEM_CACTVS_TPSA>
314

> <chiral flag>
1

> <s_m_source_file>
ligprep_10.maegz

> <i_m_source_file_index>
11

> <i_lp_mmshare_version>
44012

> <i_f3d_flags>
0

> <s_epik_input>
W05IMl1DKFtOSDJdKT1OW0NIMl1bQ0gyXVtDSDJdW0NIMl1DKD1PKVtOSF1jKGMxT1tDQEBIXTJbQ0gyXVtDSDJdW05IXVtDSDJdMilbY0hdYyhDKEYpKEYpRilbY0hdYzFbTkhdQyg9TyljM25bY0hdbmMoW2NIXTMpQyg9TylbTkhdYzRbY0hdYyhDKEYpKEYpRilbY0hdYyhjNE9bQ0BASF01W0NIMl1bQ0gyXVtOSF1bQ0gyXTUpW05IXUMoPU8pW0NIMl1bQ0gyXVtDSDJdW0NIMl1OPUMoW05IMl0pW05IMl0=

> <s_epik_cmdline>
J2VwaWtfcHl0aG9uJywgJy1waCcsICc3LjAnLCAnLXRuJywgJzgnLCAnLW1hJywgJzIwMCcsICctaW1hZScsICc8aW5maWxlLm1hZT4nLCAnLW9tYWUnLCAnPG91dGZpbGUubWFlPic=

> <r_epik_Ionization_Penalty>
  0.0028

> <r_epik_Ionization_Penalty_Charging>
  0.0014

> <r_epik_Ionization_Penalty_Neutral>
  0.0014

> <r_epik_State_Penalty>
  0.0018

> <r_epik_Charging_Adjusted_Penalty>
0.00316413

> <i_epik_Tot_Q>
4

> <i_epik_Tot_abs_Q>
4

> <s_epik_Chemistry_Notes>
This compound contains an electron-poor aromatic ring that is susceptible to covalent hydrolysis at low pH, typically resulting in measured values for nitrogen ring protonation that are around two units higher than predicted values. This compound has an imine and may undergo hydrolysis.

> <s_lp_Force_Field>
OPLS3e

> <r_lp_Energy>
104.266

> <b_lp_Chiralities_Consistent>
1

> <s_lp_Variant>
Brilacidin2D_newAntibiotic_25023695-1

> <s_m_job_name>
ligprep_10

> <r_lp_tautomer_probability>
1

> <s_m_subgroupid>
ligprep_10-out1

> <s_m_subgroup_title>
ligprep_10-out1

> <b_m_subgroup_collapsed>
0

$$$$
