Brilacidin_newAntibiotic_25023695
  -OEChem-03242007522D

116120  0     1  0  0  0  0  0999 V2000
   13.9292   -7.3100    0.0000 F   0  0  0  0  0  0  0  0  0  0  0  0
   12.9292   -8.3100    0.0000 F   0  0  0  0  0  0  0  0  0  0  0  0
   11.9292   -7.3100    0.0000 F   0  0  0  0  0  0  0  0  0  0  0  0
   10.3312    2.1900    0.0000 F   0  0  0  0  0  0  0  0  0  0  0  0
    8.9651    2.5560    0.0000 F   0  0  0  0  0  0  0  0  0  0  0  0
    9.9651    0.8240    0.0000 F   0  0  0  0  0  0  0  0  0  0  0  0
   12.9292   -3.3100    0.0000 O   0  0  0  0  0  0  0  0  0  0  0  0
    6.0010   -0.3100    0.0000 O   0  0  0  0  0  0  0  0  0  0  0  0
   15.5273   -5.8100    0.0000 O   0  0  0  0  0  0  0  0  0  0  0  0
    6.8671    3.1900    0.0000 O   0  0  0  0  0  0  0  0  0  0  0  0
   10.3312   -5.8100    0.0000 O   0  0  0  0  0  0  0  0  0  0  0  0
    9.4651   -1.3100    0.0000 O   0  0  0  0  0  0  0  0  0  0  0  0
   13.7656   -0.8613    0.0000 N   0  0  0  0  0  0  0  0  0  0  0  0
    3.4622   -0.8100    0.0000 N   0  0  0  0  0  0  0  0  0  0  0  0
   14.6613   -4.3100    0.0000 N   0  0  0  0  0  0  0  0  0  0  0  0
    6.0010    1.6900    0.0000 N   0  0  0  0  0  0  0  0  0  0  0  0
   11.1972   -4.3100    0.0000 N   0  0  0  0  0  0  0  0  0  0  0  0
    7.7331   -1.3100    0.0000 N   0  0  0  0  0  0  0  0  0  0  0  0
    8.5991   -4.8100    0.0000 N   0  0  0  0  0  0  0  0  0  0  0  0
    7.7331   -3.3100    0.0000 N   0  0  0  0  0  0  0  0  0  0  0  0
   19.8574   -4.3100    0.0000 N   0  0  0  0  0  0  0  0  0  0  0  0
    3.4030    6.1900    0.0000 N   0  0  0  0  0  0  0  0  0  0  0  0
   21.5895   -4.3100    0.0000 N   0  0  0  0  0  0  0  0  0  0  0  0
   20.7235   -5.8100    0.0000 N   0  0  0  0  0  0  0  0  0  0  0  0
    2.5369    7.6900    0.0000 N   0  0  0  0  0  0  0  0  0  0  0  0
    4.2690    7.6900    0.0000 N   0  0  0  0  0  0  0  0  0  0  0  0
   13.4292   -2.4440    0.0000 C   0  0  2  0  0  0  0  0  0  0  0  0
    5.0010   -0.3100    0.0000 C   0  0  2  0  0  0  0  0  0  0  0  0
   14.4238   -2.3394    0.0000 C   0  0  0  0  0  0  0  0  0  0  0  0
    4.4132    0.4990    0.0000 C   0  0  0  0  0  0  0  0  0  0  0  0
   13.0225   -1.5304    0.0000 C   0  0  0  0  0  0  0  0  0  0  0  0
    4.4132   -1.1190    0.0000 C   0  0  0  0  0  0  0  0  0  0  0  0
   14.6317   -1.3613    0.0000 C   0  0  0  0  0  0  0  0  0  0  0  0
    3.4622    0.1900    0.0000 C   0  0  0  0  0  0  0  0  0  0  0  0
   12.9292   -4.3100    0.0000 C   0  0  0  0  0  0  0  0  0  0  0  0
    6.8671    0.1900    0.0000 C   0  0  0  0  0  0  0  0  0  0  0  0
   13.7953   -4.8100    0.0000 C   0  0  0  0  0  0  0  0  0  0  0  0
    6.8671    1.1900    0.0000 C   0  0  0  0  0  0  0  0  0  0  0  0
   12.0632   -4.8100    0.0000 C   0  0  0  0  0  0  0  0  0  0  0  0
    7.7331   -0.3100    0.0000 C   0  0  0  0  0  0  0  0  0  0  0  0
   13.7953   -5.8100    0.0000 C   0  0  0  0  0  0  0  0  0  0  0  0
    7.7331    1.6900    0.0000 C   0  0  0  0  0  0  0  0  0  0  0  0
   12.0632   -5.8100    0.0000 C   0  0  0  0  0  0  0  0  0  0  0  0
    8.5991    0.1900    0.0000 C   0  0  0  0  0  0  0  0  0  0  0  0
   12.9292   -6.3100    0.0000 C   0  0  0  0  0  0  0  0  0  0  0  0
    8.5991    1.1900    0.0000 C   0  0  0  0  0  0  0  0  0  0  0  0
   15.5273   -4.8100    0.0000 C   0  0  0  0  0  0  0  0  0  0  0  0
    6.0010    2.6900    0.0000 C   0  0  0  0  0  0  0  0  0  0  0  0
   12.9292   -7.3100    0.0000 C   0  0  0  0  0  0  0  0  0  0  0  0
    9.4651    1.6900    0.0000 C   0  0  0  0  0  0  0  0  0  0  0  0
   16.3933   -4.3100    0.0000 C   0  0  0  0  0  0  0  0  0  0  0  0
    5.1350    3.1900    0.0000 C   0  0  0  0  0  0  0  0  0  0  0  0
   10.3312   -4.8100    0.0000 C   0  0  0  0  0  0  0  0  0  0  0  0
    8.5991   -1.8100    0.0000 C   0  0  0  0  0  0  0  0  0  0  0  0
   17.2594   -4.8100    0.0000 C   0  0  0  0  0  0  0  0  0  0  0  0
    5.1350    4.1900    0.0000 C   0  0  0  0  0  0  0  0  0  0  0  0
   18.1254   -4.3100    0.0000 C   0  0  0  0  0  0  0  0  0  0  0  0
    4.2690    4.6900    0.0000 C   0  0  0  0  0  0  0  0  0  0  0  0
    9.4651   -4.3100    0.0000 C   0  0  0  0  0  0  0  0  0  0  0  0
    8.5991   -2.8100    0.0000 C   0  0  0  0  0  0  0  0  0  0  0  0
    9.4651   -3.3100    0.0000 C   0  0  0  0  0  0  0  0  0  0  0  0
   18.9914   -4.8100    0.0000 C   0  0  0  0  0  0  0  0  0  0  0  0
    4.2690    5.6900    0.0000 C   0  0  0  0  0  0  0  0  0  0  0  0
    7.7331   -4.3100    0.0000 C   0  0  0  0  0  0  0  0  0  0  0  0
   20.7235   -4.8100    0.0000 C   0  0  0  0  0  0  0  0  0  0  0  0
    3.4030    7.1900    0.0000 C   0  0  0  0  0  0  0  0  0  0  0  0
   12.8101   -2.4115    0.0000 H   0  0  0  0  0  0  0  0  0  0  0  0
    5.2825   -0.8624    0.0000 H   0  0  0  0  0  0  0  0  0  0  0  0
   14.4238   -2.9594    0.0000 H   0  0  0  0  0  0  0  0  0  0  0  0
   15.0404   -2.4043    0.0000 H   0  0  0  0  0  0  0  0  0  0  0  0
    4.9502    0.8090    0.0000 H   0  0  0  0  0  0  0  0  0  0  0  0
    4.1611    1.0654    0.0000 H   0  0  0  0  0  0  0  0  0  0  0  0
   12.6581   -1.0288    0.0000 H   0  0  0  0  0  0  0  0  0  0  0  0
   12.4856   -1.8404    0.0000 H   0  0  0  0  0  0  0  0  0  0  0  0
    4.1611   -1.6854    0.0000 H   0  0  0  0  0  0  0  0  0  0  0  0
    4.9502   -1.4290    0.0000 H   0  0  0  0  0  0  0  0  0  0  0  0
   15.2213   -1.5529    0.0000 H   0  0  0  0  0  0  0  0  0  0  0  0
   14.8839   -0.7949    0.0000 H   0  0  0  0  0  0  0  0  0  0  0  0
    3.3333    0.7965    0.0000 H   0  0  0  0  0  0  0  0  0  0  0  0
    2.8456    0.1252    0.0000 H   0  0  0  0  0  0  0  0  0  0  0  0
   13.7008   -0.2447    0.0000 H   0  0  0  0  0  0  0  0  0  0  0  0
    2.9606   -1.1744    0.0000 H   0  0  0  0  0  0  0  0  0  0  0  0
   14.3322   -6.1200    0.0000 H   0  0  0  0  0  0  0  0  0  0  0  0
    7.7331    2.3100    0.0000 H   0  0  0  0  0  0  0  0  0  0  0  0
   11.5263   -6.1200    0.0000 H   0  0  0  0  0  0  0  0  0  0  0  0
    9.1360   -0.1200    0.0000 H   0  0  0  0  0  0  0  0  0  0  0  0
   14.9713   -3.7731    0.0000 H   0  0  0  0  0  0  0  0  0  0  0  0
    5.3810    1.6900    0.0000 H   0  0  0  0  0  0  0  0  0  0  0  0
   11.1972   -3.6900    0.0000 H   0  0  0  0  0  0  0  0  0  0  0  0
    7.1962   -1.6200    0.0000 H   0  0  0  0  0  0  0  0  0  0  0  0
   16.7919   -3.8350    0.0000 H   0  0  0  0  0  0  0  0  0  0  0  0
   15.9948   -3.8350    0.0000 H   0  0  0  0  0  0  0  0  0  0  0  0
    4.5244    3.2977    0.0000 H   0  0  0  0  0  0  0  0  0  0  0  0
    4.9230    2.6074    0.0000 H   0  0  0  0  0  0  0  0  0  0  0  0
   16.8608   -5.2850    0.0000 H   0  0  0  0  0  0  0  0  0  0  0  0
   17.6579   -5.2850    0.0000 H   0  0  0  0  0  0  0  0  0  0  0  0
    5.7456    4.0823    0.0000 H   0  0  0  0  0  0  0  0  0  0  0  0
    5.3471    4.7726    0.0000 H   0  0  0  0  0  0  0  0  0  0  0  0
   18.5239   -3.8350    0.0000 H   0  0  0  0  0  0  0  0  0  0  0  0
   17.7269   -3.8350    0.0000 H   0  0  0  0  0  0  0  0  0  0  0  0
    3.6584    4.7977    0.0000 H   0  0  0  0  0  0  0  0  0  0  0  0
    4.0569    4.1074    0.0000 H   0  0  0  0  0  0  0  0  0  0  0  0
   10.0021   -3.0000    0.0000 H   0  0  0  0  0  0  0  0  0  0  0  0
   18.5929   -5.2850    0.0000 H   0  0  0  0  0  0  0  0  0  0  0  0
   19.3899   -5.2850    0.0000 H   0  0  0  0  0  0  0  0  0  0  0  0
    4.8796    5.5823    0.0000 H   0  0  0  0  0  0  0  0  0  0  0  0
    4.4810    6.2726    0.0000 H   0  0  0  0  0  0  0  0  0  0  0  0
    7.1962   -4.6200    0.0000 H   0  0  0  0  0  0  0  0  0  0  0  0
   22.1264   -4.6200    0.0000 H   0  0  0  0  0  0  0  0  0  0  0  0
   21.5895   -3.6900    0.0000 H   0  0  0  0  0  0  0  0  0  0  0  0
   21.2604   -6.1200    0.0000 H   0  0  0  0  0  0  0  0  0  0  0  0
   20.1865   -6.1200    0.0000 H   0  0  0  0  0  0  0  0  0  0  0  0
    2.5369    8.3100    0.0000 H   0  0  0  0  0  0  0  0  0  0  0  0
    2.0000    7.3800    0.0000 H   0  0  0  0  0  0  0  0  0  0  0  0
    4.2690    8.3100    0.0000 H   0  0  0  0  0  0  0  0  0  0  0  0
    4.8059    7.3800    0.0000 H   0  0  0  0  0  0  0  0  0  0  0  0
  1 49  1  0  0  0  0
  2 49  1  0  0  0  0
  3 49  1  0  0  0  0
  4 50  1  0  0  0  0
  5 50  1  0  0  0  0
  6 50  1  0  0  0  0
 27  7  1  1  0  0  0
  7 35  1  0  0  0  0
 28  8  1  1  0  0  0
  8 36  1  0  0  0  0
  9 47  2  0  0  0  0
 10 48  2  0  0  0  0
 11 53  2  0  0  0  0
 12 54  2  0  0  0  0
 13 31  1  0  0  0  0
 13 33  1  0  0  0  0
 13 81  1  0  0  0  0
 14 32  1  0  0  0  0
 14 34  1  0  0  0  0
 14 82  1  0  0  0  0
 15 37  1  0  0  0  0
 15 47  1  0  0  0  0
 15 87  1  0  0  0  0
 16 38  1  0  0  0  0
 16 48  1  0  0  0  0
 16 88  1  0  0  0  0
 17 39  1  0  0  0  0
 17 53  1  0  0  0  0
 17 89  1  0  0  0  0
 18 40  1  0  0  0  0
 18 54  1  0  0  0  0
 18 90  1  0  0  0  0
 19 59  2  0  0  0  0
 19 64  1  0  0  0  0
 20 60  1  0  0  0  0
 20 64  2  0  0  0  0
 21 62  1  0  0  0  0
 21 65  2  0  0  0  0
 22 63  1  0  0  0  0
 22 66  2  0  0  0  0
 23 65  1  0  0  0  0
 23109  1  0  0  0  0
 23110  1  0  0  0  0
 24 65  1  0  0  0  0
 24111  1  0  0  0  0
 24112  1  0  0  0  0
 25 66  1  0  0  0  0
 25113  1  0  0  0  0
 25114  1  0  0  0  0
 26 66  1  0  0  0  0
 26115  1  0  0  0  0
 26116  1  0  0  0  0
 27 29  1  0  0  0  0
 27 31  1  0  0  0  0
 27 67  1  0  0  0  0
 28 30  1  0  0  0  0
 28 32  1  0  0  0  0
 28 68  1  0  0  0  0
 29 33  1  0  0  0  0
 29 69  1  0  0  0  0
 29 70  1  0  0  0  0
 30 34  1  0  0  0  0
 30 71  1  0  0  0  0
 30 72  1  0  0  0  0
 31 73  1  0  0  0  0
 31 74  1  0  0  0  0
 32 75  1  0  0  0  0
 32 76  1  0  0  0  0
 33 77  1  0  0  0  0
 33 78  1  0  0  0  0
 34 79  1  0  0  0  0
 34 80  1  0  0  0  0
 35 37  2  0  0  0  0
 35 39  1  0  0  0  0
 36 38  2  0  0  0  0
 36 40  1  0  0  0  0
 37 41  1  0  0  0  0
 38 42  1  0  0  0  0
 39 43  2  0  0  0  0
 40 44  2  0  0  0  0
 41 45  2  0  0  0  0
 41 83  1  0  0  0  0
 42 46  2  0  0  0  0
 42 84  1  0  0  0  0
 43 45  1  0  0  0  0
 43 85  1  0  0  0  0
 44 46  1  0  0  0  0
 44 86  1  0  0  0  0
 45 49  1  0  0  0  0
 46 50  1  0  0  0  0
 47 51  1  0  0  0  0
 48 52  1  0  0  0  0
 51 55  1  0  0  0  0
 51 91  1  0  0  0  0
 51 92  1  0  0  0  0
 52 56  1  0  0  0  0
 52 93  1  0  0  0  0
 52 94  1  0  0  0  0
 53 59  1  0  0  0  0
 54 60  1  0  0  0  0
 55 57  1  0  0  0  0
 55 95  1  0  0  0  0
 55 96  1  0  0  0  0
 56 58  1  0  0  0  0
 56 97  1  0  0  0  0
 56 98  1  0  0  0  0
 57 62  1  0  0  0  0
 57 99  1  0  0  0  0
 57100  1  0  0  0  0
 58 63  1  0  0  0  0
 58101  1  0  0  0  0
 58102  1  0  0  0  0
 59 61  1  0  0  0  0
 60 61  2  0  0  0  0
 61103  1  0  0  0  0
 62104  1  0  0  0  0
 62105  1  0  0  0  0
 63106  1  0  0  0  0
 63107  1  0  0  0  0
 64108  1  0  0  0  0
M  END
> <PUBCHEM_COMPOUND_CID>
25023695

> <PUBCHEM_COMPOUND_CANONICALIZED>
1

> <PUBCHEM_CACTVS_COMPLEXITY>
1560

> <PUBCHEM_CACTVS_HBOND_ACCEPTOR>
18

> <PUBCHEM_CACTVS_HBOND_DONOR>
10

> <PUBCHEM_CACTVS_ROTATABLE_BOND>
20

> <PUBCHEM_CACTVS_SUBSKEYS>
AAADcfB/+cAAAAAAAAAAAAAAAAAAAWLAAAA8YIAAAAAAAAAB0AAAHwAQAAAADBzhnhY11pbIFACoAyVzdACCiCk3IqAB2KG9bNiObjLE/fuXPSju1BPY6aecwwAOIAAAQAQAEABAAACACAAgAAAAAAAAAA==

> <PUBCHEM_IUPAC_OPENEYE_NAME>
N4,N6-bis[3-(5-guanidinopentanoylamino)-2-[(3R)-pyrrolidin-3-yl]oxy-5-(trifluoromethyl)phenyl]pyrimidine-4,6-dicarboxamide

> <PUBCHEM_IUPAC_CAS_NAME>
N4,N6-bis[3-[[5-(diaminomethylideneamino)-1-oxopentyl]amino]-2-[[(3R)-3-pyrrolidinyl]oxy]-5-(trifluoromethyl)phenyl]pyrimidine-4,6-dicarboxamide

> <PUBCHEM_IUPAC_NAME_MARKUP>
4-<I>N</I>,6-<I>N</I>-bis[3-[5-(diaminomethylideneamino)pentanoylamino]-2-[(3<I>R</I>)-pyrrolidin-3-yl]oxy-5-(trifluoromethyl)phenyl]pyrimidine-4,6-dicarboxamide

> <PUBCHEM_IUPAC_NAME>
4-N,6-N-bis[3-[5-(diaminomethylideneamino)pentanoylamino]-2-[(3R)-pyrrolidin-3-yl]oxy-5-(trifluoromethyl)phenyl]pyrimidine-4,6-dicarboxamide

> <PUBCHEM_IUPAC_SYSTEMATIC_NAME>
N4,N6-bis[3-[5-[bis(azanyl)methylideneamino]pentanoylamino]-2-[(3R)-pyrrolidin-3-yl]oxy-5-(trifluoromethyl)phenyl]pyrimidine-4,6-dicarboxamide

> <PUBCHEM_IUPAC_TRADITIONAL_NAME>
N,N'-bis[3-(5-guanidinopentanoylamino)-2-[(3R)-pyrrolidin-3-yl]oxy-5-(trifluoromethyl)phenyl]pyrimidine-4,6-dicarboxamide

> <PUBCHEM_IUPAC_INCHI>
InChI=1S/C40H50F6N14O6/c41-39(42,43)21-13-25(57-31(61)5-1-3-9-53-37(47)48)33(65-23-7-11-51-18-23)27(15-21)59-35(63)29-17-30(56-20-55-29)36(64)60-28-16-22(40(44,45)46)14-26(34(28)66-24-8-12-52-19-24)58-32(62)6-2-4-10-54-38(49)50/h13-17,20,23-24,51-52H,1-12,18-19H2,(H,57,61)(H,58,62)(H,59,63)(H,60,64)(H4,47,48,53)(H4,49,50,54)/t23-,24-/m1/s1

> <PUBCHEM_IUPAC_INCHIKEY>
QPDYBCZNGUJZDK-DNQXCXABSA-N

> <PUBCHEM_XLOGP3_AA>
0.3

> <PUBCHEM_EXACT_MASS>
936.394194

> <PUBCHEM_MOLECULAR_FORMULA>
C40H50F6N14O6

> <PUBCHEM_MOLECULAR_WEIGHT>
936.9

> <PUBCHEM_OPENEYE_CAN_SMILES>
C1CNCC1OC2=C(C=C(C=C2NC(=O)C3=CC(=NC=N3)C(=O)NC4=CC(=CC(=C4OC5CCNC5)NC(=O)CCCCN=C(N)N)C(F)(F)F)C(F)(F)F)NC(=O)CCCCN=C(N)N

> <PUBCHEM_OPENEYE_ISO_SMILES>
C1CNC[C@@H]1OC2=C(C=C(C=C2NC(=O)C3=CC(=NC=N3)C(=O)NC4=CC(=CC(=C4O[C@@H]5CCNC5)NC(=O)CCCCN=C(N)N)C(F)(F)F)C(F)(F)F)NC(=O)CCCCN=C(N)N

> <PUBCHEM_CACTVS_TPSA>
314

> <PUBCHEM_MONOISOTOPIC_WEIGHT>
936.394194

> <PUBCHEM_TOTAL_CHARGE>
0

> <PUBCHEM_HEAVY_ATOM_COUNT>
66

> <PUBCHEM_ATOM_DEF_STEREO_COUNT>
2

> <PUBCHEM_ATOM_UDEF_STEREO_COUNT>
0

> <PUBCHEM_BOND_DEF_STEREO_COUNT>
0

> <PUBCHEM_BOND_UDEF_STEREO_COUNT>
0

> <PUBCHEM_ISOTOPIC_ATOM_COUNT>
0

> <PUBCHEM_COMPONENT_COUNT>
1

> <PUBCHEM_CACTVS_TAUTO_COUNT>
-1

> <PUBCHEM_COORDINATE_TYPE>
1
5
255

> <PUBCHEM_BONDANNOTATIONS>
19  59  8
19  64  8
20  60  8
20  64  8
35  37  8
35  39  8
36  38  8
36  40  8
37  41  8
38  42  8
39  43  8
40  44  8
41  45  8
42  46  8
43  45  8
44  46  8
59  61  8
60  61  8
27  7  5
28  8  5

$$$$
